data_image0
_chemical_formula_structural       Ba8Zr7O24Y
_chemical_formula_sum              "Ba8 Zr7 O24 Y1"
_cell_length_a       8.384
_cell_length_b       8.384
_cell_length_c       8.384
_cell_angle_alpha    90.0
_cell_angle_beta     90.0
_cell_angle_gamma    90.0

_space_group_name_H-M_alt    "P 1"
_space_group_IT_number       1

loop_
  _space_group_symop_operation_xyz
  'x, y, z'

loop_
  _atom_site_type_symbol
  _atom_site_label
  _atom_site_symmetry_multiplicity
  _atom_site_fract_x
  _atom_site_fract_y
  _atom_site_fract_z
  _atom_site_occupancy
  Ba  Ba1       1.0  0.0  0.0  0.0  1.0000
  Ba  Ba2       1.0  0.4999999999999999  0.0  0.0  1.0000
  Ba  Ba3       1.0  0.0  0.4999999999999999  0.0  1.0000
  Ba  Ba4       1.0  0.4999999999999999  0.4999999999999999  0.0  1.0000
  Ba  Ba5       1.0  0.0  0.0  0.4999999999999999  1.0000
  Ba  Ba6       1.0  0.4999999999999999  0.0  0.4999999999999999  1.0000
  Ba  Ba7       1.0  0.0  0.4999999999999999  0.4999999999999999  1.0000
  Ba  Ba8       1.0  0.4999999999999999  0.4999999999999999  0.4999999999999999  1.0000
  Zr  Zr1       1.0  0.25  0.25  0.25  1.0000
  Zr  Zr2       1.0  0.25  0.75  0.25  1.0000
  Zr  Zr3       1.0  0.75  0.75  0.25  1.0000
  Zr  Zr4       1.0  0.25  0.25  0.75  1.0000
  Zr  Zr5       1.0  0.75  0.25  0.75  1.0000
  Zr  Zr6       1.0  0.25  0.75  0.75  1.0000
  Zr  Zr7       1.0  0.75  0.75  0.75  1.0000
  O   O1        1.0  0.25  0.25  0.0  1.0000
  O   O2        1.0  0.75  0.25  0.0  1.0000
  O   O3        1.0  0.25  0.75  0.0  1.0000
  O   O4        1.0  0.75  0.75  0.0  1.0000
  O   O5        1.0  0.25  0.0  0.25  1.0000
  O   O6        1.0  0.75  0.0  0.25  1.0000
  O   O7        1.0  0.0  0.25  0.25  1.0000
  O   O8        1.0  0.4999999999999999  0.25  0.25  1.0000
  O   O9        1.0  0.25  0.4999999999999999  0.25  1.0000
  O   O10       1.0  0.75  0.4999999999999999  0.25  1.0000
  O   O11       1.0  0.0  0.75  0.25  1.0000
  O   O12       1.0  0.4999999999999999  0.75  0.25  1.0000
  O   O13       1.0  0.25  0.25  0.4999999999999999  1.0000
  O   O14       1.0  0.75  0.25  0.4999999999999999  1.0000
  O   O15       1.0  0.25  0.75  0.4999999999999999  1.0000
  O   O16       1.0  0.75  0.75  0.4999999999999999  1.0000
  O   O17       1.0  0.25  0.0  0.75  1.0000
  O   O18       1.0  0.75  0.0  0.75  1.0000
  O   O19       1.0  0.0  0.25  0.75  1.0000
  O   O20       1.0  0.4999999999999999  0.25  0.75  1.0000
  O   O21       1.0  0.25  0.4999999999999999  0.75  1.0000
  O   O22       1.0  0.75  0.4999999999999999  0.75  1.0000
  O   O23       1.0  0.0  0.75  0.75  1.0000
  O   O24       1.0  0.4999999999999999  0.75  0.75  1.0000
  Y   Y1        1.0  0.75  0.25  0.25  1.0000
