data_image0
_chemical_formula_structural       BaZrO3BaZrO3BaZrO3BaZrO3BaZrO3BaYO3BaZrO3BaZrO3BaZrO3BaZrO3BaZrO3BaYO3BaZrO3BaZrO3BaZrO3BaZrO3BaZrO3BaZrO3BaZrO3BaZrO3BaZrO3BaZrO3BaZrO3BaZrO3BaZrO3BaYO3BaZrO3
_chemical_formula_sum              "Ba27 Zr24 O81 Y3"
_cell_length_a       12.576
_cell_length_b       12.576
_cell_length_c       12.576
_cell_angle_alpha    90.0
_cell_angle_beta     90.0
_cell_angle_gamma    90.0

_space_group_name_H-M_alt    "P 1"
_space_group_IT_number       1

loop_
  _space_group_symop_operation_xyz
  'x, y, z'

loop_
  _atom_site_type_symbol
  _atom_site_label
  _atom_site_symmetry_multiplicity
  _atom_site_fract_x
  _atom_site_fract_y
  _atom_site_fract_z
  _atom_site_occupancy
  Ba  Ba1       1.0  0.9996320124444433  0.9998220769683008  0.9999112754760573  1.0000
  Zr  Zr1       1.0  0.16637138550813388  0.16644445948181372  0.16637129421240143  1.0000
  O   O1        1.0  0.1668460960290919  0.16693896583668066  0.000362267897038116  1.0000
  O   O2        1.0  0.1666310474905941  0.00011670379945944733  0.16695472123207197  1.0000
  O   O3        1.0  0.9996598041953597  0.16682334698434062  0.166780138068666  1.0000
  Ba  Ba2       1.0  0.9999142929575588  0.0002657249681875852  0.3329922298335573  1.0000
  Zr  Zr2       1.0  0.1665543336401178  0.1667590642246913  0.5000931357435442  1.0000
  O   O4        1.0  0.16703968050702175  0.1666718916864284  0.33351764364334846  1.0000
  O   O5        1.0  0.16688635797629794  0.9997193575762857  0.5003692795918026  1.0000
  O   O6        1.0  0.0003366303072946407  0.16664155212425846  0.4999015595358811  1.0000
  Ba  Ba3       1.0  0.9998067754082905  6.266447298573896e-05  0.6669102211566691  1.0000
  Zr  Zr3       1.0  0.16698992658983586  0.16647498121681745  0.8329980299427829  1.0000
  O   O7        1.0  0.16688663507734391  0.16633122821474858  0.666917905338451  1.0000
  O   O8        1.0  0.16705917000545858  0.9998810019062999  0.83360017548995  1.0000
  O   O9        1.0  0.9996250084611591  0.16681958257632765  0.83357234487512  1.0000
  Ba  Ba4       1.0  4.185094656324021e-05  0.33319696474016286  8.387138887771391e-05  1.0000
  Zr  Zr4       1.0  0.1666782660224811  0.4999087100916391  0.16664604364266325  1.0000
  O   O10       1.0  0.1670150991750831  0.5001310535493584  0.9996342917649444  1.0000
  O   O11       1.0  0.1666072593213331  0.33348040326142525  0.16701949100521346  1.0000
  O   O12       1.0  0.9997238205999488  0.49969645710645944  0.16689179478364638  1.0000
  Ba  Ba5       1.0  0.9996477676238505  0.33355726344929365  0.3335168673270745  1.0000
  Zr  Zr5       1.0  0.16677764926087627  0.4996676600680399  0.49966628140082886  1.0000
  O   O13       1.0  0.1667602294465642  0.5001286650135052  0.333549242773727  1.0000
  O   O14       1.0  0.16672559551193256  0.33300807005340183  0.5000038387683701  1.0000
  O   O15       1.0  0.9996416306375318  0.5002522344689176  0.4997487296846593  1.0000
  Ba  Ba6       1.0  7.903497879880441e-05  0.33302232096819423  0.6664748223893866  1.0000
  Y   Y1        1.0  0.16672970797275785  0.49971354475364144  0.8332355085565527  1.0000
  O   O16       1.0  0.16639187085492876  0.49992735281287715  0.6665478017728871  1.0000
  O   O17       1.0  0.1667086225688495  0.3335378295110772  0.8335054598055075  1.0000
  O   O18       1.0  0.9999914177023876  0.5001512763931767  0.8334018538715962  1.0000
  Ba  Ba7       1.0  0.9996328785667149  0.6669012321456511  0.9999540084323509  1.0000
  Zr  Zr6       1.0  0.16644853108709032  0.8334247486271078  0.16661965817367821  1.0000
  O   O19       1.0  0.16697663417892242  0.8334347415865302  0.9997176121919107  1.0000
  O   O20       1.0  0.16700950910036047  0.6667465228976232  0.16632459467744945  1.0000
  O   O21       1.0  0.9999178510060043  0.8334828684042965  0.16640549916693573  1.0000
  Ba  Ba8       1.0  8.329255038451204e-05  0.6665141016674349  0.33337240072828705  1.0000
  Zr  Zr7       1.0  0.16691787905170632  0.8331883375636755  0.49988267901452155  1.0000
  O   O22       1.0  0.16668824913134192  0.8331413221202677  0.33318065984546386  1.0000
  O   O23       1.0  0.16659891160246693  0.6667108388965185  0.49982942740749503  1.0000
  O   O24       1.0  0.00037431790065145797  0.8331543256809991  0.500259210696754  1.0000
  Ba  Ba9       1.0  3.3924400202214605e-05  0.6669858993418963  0.6665751043713631  1.0000
  Zr  Zr8       1.0  0.16665598226812037  0.8332502519618425  0.8330243806911296  1.0000
  O   O25       1.0  0.16628569224694487  0.8335611754041318  0.6663221275507282  1.0000
  O   O26       1.0  0.16653382647790754  0.6667359840827589  0.8336402118810288  1.0000
  O   O27       1.0  0.00036428062257216074  0.8333922208614731  0.8330090249691454  1.0000
  Ba  Ba10      1.0  0.3331836279150651  0.00011440930151837774  0.0002260150764675694  1.0000
  Zr  Zr9       1.0  0.5001922435725837  0.16647139487117524  0.16691324671258734  1.0000
  O   O28       1.0  0.4996468763983571  0.16646569727111077  0.9996212938672508  1.0000
  O   O29       1.0  0.49989786278802306  0.0003111715734003493  0.1668274822208586  1.0000
  O   O30       1.0  0.33363962374327427  0.16640921871405184  0.16687288118171195  1.0000
  Ba  Ba11      1.0  0.3334884735011136  0.9996247456743912  0.3333610970073157  1.0000
  Zr  Zr10      1.0  0.4996764646498902  0.16673886610039493  0.4996550240226083  1.0000
  O   O31       1.0  0.5001756210297585  0.16701709435004938  0.3330920018564461  1.0000
  O   O32       1.0  0.49976405273852786  0.9997283268495785  0.5003128823640886  1.0000
  O   O33       1.0  0.33334278640175596  0.1669110227784608  0.500094801136149  1.0000
  Ba  Ba12      1.0  0.3329553822444884  0.00029341157220344883  0.6664764979902564  1.0000
  Y   Y2        1.0  0.5000683424986786  0.16657922137662018  0.8332394383110655  1.0000
  O   O34       1.0  0.4998162869809668  0.16655454240866932  0.6664087504159238  1.0000
  O   O35       1.0  0.5000115826079956  0.9999743716662789  0.8330812926292084  1.0000
  O   O36       1.0  0.3333942290943179  0.1664776406199502  0.8333421968482227  1.0000
  Ba  Ba13      1.0  0.33320892510970906  0.3335545141052461  6.243527711615944e-05  1.0000
  Zr  Zr11      1.0  0.5001367513337066  0.500185010632414  0.16701068530681704  1.0000
  O   O37       1.0  0.49980771486105163  0.500271844280583  0.0003733251692402081  1.0000
  O   O38       1.0  0.4999414824741703  0.3332540196502648  0.16641027689760401  1.0000
  O   O39       1.0  0.33350715697023164  0.49969962882633173  0.1667593034437414  1.0000
  Ba  Ba14      1.0  0.33330715871460626  0.33300447515727477  0.33312383530753376  1.0000
  Zr  Zr12      1.0  0.49962991512500293  0.49978304456614847  0.49979157566211735  1.0000
  O   O40       1.0  0.5003975046165913  0.500134436123701  0.3335060231549541  1.0000
  O   O41       1.0  0.5003611457207056  0.33361645003978296  0.5002220050152162  1.0000
  O   O42       1.0  0.33350529273326157  0.5000568295577584  0.4996700534663186  1.0000
  Ba  Ba15      1.0  0.33346851898239105  0.33345653351417626  0.6664121212825629  1.0000
  Zr  Zr13      1.0  0.5000359214509157  0.49974762946482637  0.8330629871442837  1.0000
  O   O43       1.0  0.5001386110950843  0.4998454212230959  0.6663868737609848  1.0000
  O   O44       1.0  0.49998847239949723  0.3333759000008233  0.8332791932566818  1.0000
  O   O45       1.0  0.33319801723587833  0.5002523025713614  0.8335366649135559  1.0000
  Ba  Ba16      1.0  0.33323236445723925  0.6667603381684741  0.9998044456279461  1.0000
  Zr  Zr14      1.0  0.5000781915112096  0.8336132005374607  0.16669039061019988  1.0000
  O   O46       1.0  0.4999023905722229  0.8335105423550344  0.9996597073739445  1.0000
  O   O47       1.0  0.4998560987739917  0.6664842694375787  0.16690786006794078  1.0000
  O   O48       1.0  0.33342941022002415  0.8332032434209585  0.1662767996795476  1.0000
  Ba  Ba17      1.0  0.3335350225954813  0.6667875459144338  0.33317670467521393  1.0000
  Zr  Zr15      1.0  0.49988446774162987  0.8331147550044046  0.4999994618379626  1.0000
  O   O49       1.0  0.5002833320591872  0.8334864018111318  0.3330731593777796  1.0000
  O   O50       1.0  0.5002352119142225  0.6663028466361971  0.49987502175110876  1.0000
  O   O51       1.0  0.3334014450668316  0.8336440604229065  0.5003043983551058  1.0000
  Ba  Ba18      1.0  0.333229499645749  0.6665174675927655  0.6666373960746587  1.0000
  Zr  Zr16      1.0  0.49967462378618366  0.8333523594546476  0.833159629114283  1.0000
  O   O52       1.0  0.5001843412350129  0.8329392170654438  0.6665073545008524  1.0000
  O   O53       1.0  0.5001569665779471  0.6669658393853796  0.8334948440137308  1.0000
  O   O54       1.0  0.333184876373091  0.8337245208930477  0.833462375250142  1.0000
  Ba  Ba19      1.0  0.6670520562605913  0.0001577397425461533  0.999667901871435  1.0000
  Zr  Zr17      1.0  0.8333336683260615  0.16669717034668138  0.16628798517114288  1.0000
  O   O55       1.0  0.832950466214501  0.16683547519649924  0.9998806742515387  1.0000
  O   O56       1.0  0.8332924003457314  0.0002958518335102778  0.16669591681863555  1.0000
  O   O57       1.0  0.6668229591950688  0.1665182402341758  0.16679703020480002  1.0000
  Ba  Ba20      1.0  0.6668924783532965  0.00019525867741439936  0.33365819797668494  1.0000
  Zr  Zr18      1.0  0.8330872435241088  0.16669116985625876  0.5003102932702328  1.0000
  O   O58       1.0  0.8332270860215772  0.16651662058558453  0.3336795247028629  1.0000
  O   O59       1.0  0.8334507639821229  0.9998786538136094  0.5001945002757034  1.0000
  O   O60       1.0  0.6669107100521003  0.16643980401343664  0.4997419140420863  1.0000
  Ba  Ba21      1.0  0.6665477999584379  0.9999033985244627  0.6664227544124673  1.0000
  Zr  Zr19      1.0  0.8333289826922263  0.1668218841850785  0.8334707580674139  1.0000
  O   O61       1.0  0.8329662399889793  0.16702233072443895  0.6667333009462444  1.0000
  O   O62       1.0  0.8330343546104997  0.0001917671996015593  0.8334926353301743  1.0000
  O   O63       1.0  0.6665857644968621  0.1662742708883241  0.8332886829477345  1.0000
  Ba  Ba22      1.0  0.6664791249214143  0.3335657961253902  7.99905528641468e-05  1.0000
  Zr  Zr20      1.0  0.8335197378621559  0.4997719787846587  0.1666941945017659  1.0000
  O   O64       1.0  0.8332248495920903  0.5000462786505285  0.00011308347451167484  1.0000
  O   O65       1.0  0.8329917599515236  0.3335610174575092  0.16665128813542593  1.0000
  O   O66       1.0  0.6663173458215265  0.5000928015272551  0.16691581573653055  1.0000
  Ba  Ba23      1.0  0.666406539413112  0.33297439826086933  0.3336848173265583  1.0000
  Zr  Zr21      1.0  0.8334383234191385  0.5001746426077961  0.5002564523127294  1.0000
  O   O67       1.0  0.8335002754955906  0.4996512012842316  0.3330410231333843  1.0000
  O   O68       1.0  0.8334072854435579  0.3334066076625871  0.5002141398849093  1.0000
  O   O69       1.0  0.6665938200524306  0.5000221694973477  0.5000605167602854  1.0000
  Ba  Ba24      1.0  0.6663766766265556  0.3333786547214174  0.6667784982602929  1.0000
  Zr  Zr22      1.0  0.8329782518728679  0.5002947222224551  0.8335510024399321  1.0000
  O   O70       1.0  0.833384601799391  0.49995108598397875  0.6663247055863551  1.0000
  O   O71       1.0  0.8334733715346067  0.33359406079755677  0.8333394353314086  1.0000
  O   O72       1.0  0.6669562931462961  0.4997052972666093  0.8329437298269374  1.0000
  Ba  Ba25      1.0  0.6670574487278218  0.6667293632598444  0.0002515859395013945  1.0000
  Zr  Zr23      1.0  0.8331527912166709  0.8334144317548721  0.16677901329001305  1.0000
  O   O73       1.0  0.8335047015949172  0.8330612841578229  0.9999878679359313  1.0000
  O   O74       1.0  0.8331195610986809  0.6669056620053363  0.1670210230627153  1.0000
  O   O75       1.0  0.6664274419231823  0.8332613683638895  0.16676434781995397  1.0000
  Ba  Ba26      1.0  0.6669983767401231  0.6670381182346987  0.33338640098738975  1.0000
  Y   Y3        1.0  0.8336797964653785  0.8330617892188725  0.4998729682416603  1.0000
  O   O76       1.0  0.8332884072199285  0.8333590719286466  0.33370602161293367  1.0000
  O   O77       1.0  0.8332018555109522  0.6669177477998843  0.5001146154396711  1.0000
  O   O78       1.0  0.6664466310004069  0.8335871613051187  0.4996946258890927  1.0000
  Ba  Ba27      1.0  0.6670321837257007  0.666822098082908  0.6667155778574492  1.0000
  Zr  Zr24      1.0  0.8333491079884171  0.8333193788506968  0.8330978756852544  1.0000
  O   O79       1.0  0.8336087068017211  0.8330218215836823  0.6669979276626449  1.0000
  O   O80       1.0  0.8337283162075676  0.6670640435996306  0.8336699338551511  1.0000
  O   O81       1.0  0.6669958932031245  0.8333589473724692  0.8332964964351981  1.0000
