data_image0
_chemical_formula_structural       BaZrO3BaZrO3BaZrO3BaYO3BaZrO3BaZrO3BaZrO3BaZrO3
_chemical_formula_sum              "Ba8 Zr7 O24 Y1"
_cell_length_a       8.384
_cell_length_b       8.384
_cell_length_c       8.384
_cell_angle_alpha    90.0
_cell_angle_beta     90.0
_cell_angle_gamma    90.0

_space_group_name_H-M_alt    "P 1"
_space_group_IT_number       1

loop_
  _space_group_symop_operation_xyz
  'x, y, z'

loop_
  _atom_site_type_symbol
  _atom_site_label
  _atom_site_symmetry_multiplicity
  _atom_site_fract_x
  _atom_site_fract_y
  _atom_site_fract_z
  _atom_site_occupancy
  Ba  Ba1       1.0  0.9997099914342062  0.00021157171020877755  6.054178096252555e-06  1.0000
  Zr  Zr1       1.0  0.24975881498677324  0.24950905861933087  0.24993857086393956  1.0000
  O   O1        1.0  0.25016326499345626  0.250467845013545  0.9998406928576437  1.0000
  O   O2        1.0  0.2500369777496612  0.9999999965258239  0.2501183499037369  1.0000
  O   O3        1.0  0.0002626572042537334  0.2500113484565147  0.25008094351070775  1.0000
  Ba  Ba2       1.0  0.0004663908637687484  4.931766676968469e-05  0.5005805955178855  1.0000
  Zr  Zr2       1.0  0.24941149378487948  0.24983533743895478  0.7504684366762723  1.0000
  O   O4        1.0  0.24981182208090652  0.2498929947420868  0.5002434781546953  1.0000
  O   O5        1.0  0.2495471810164431  0.9999334325567147  0.7505935069032018  1.0000
  O   O6        1.0  6.114486687041425e-05  0.24971593811554912  0.7504067589861118  1.0000
  Ba  Ba3       1.0  0.0004406369310364147  0.4997919848025794  0.999514360006251  1.0000
  Zr  Zr3       1.0  0.24952237739319547  0.7501476333604677  0.2503455809045299  1.0000
  O   O7        1.0  0.2504812866278241  0.7497707928283809  0.9998281207538288  1.0000
  O   O8        1.0  0.2504349264457739  0.5002371398517935  0.25056243203955275  1.0000
  O   O9        1.0  0.00036061357506776665  0.7501686505417431  0.2502627391472607  1.0000
  Ba  Ba4       1.0  0.9997764063981358  0.49950916850814003  0.5003322548881213  1.0000
  Y   Y1        1.0  0.24948159914605414  0.7502856597269648  0.7501475248020577  1.0000
  O   O10       1.0  0.2501209856061836  0.7495429800296493  0.4994132276834189  1.0000
  O   O11       1.0  0.25043336906705566  0.4998421334247035  0.7498139191938786  1.0000
  O   O12       1.0  0.0005535896001429093  0.7504806326969616  0.749552078933139  1.0000
  Ba  Ba5       1.0  0.49952641663834424  0.00035489490795045773  0.9996035404784662  1.0000
  Zr  Zr4       1.0  0.7494370606641052  0.2502648954034723  0.24983332232189162  1.0000
  O   O13       1.0  0.7497330938901148  0.24953326730150802  0.0005460416297463211  1.0000
  O   O14       1.0  0.7501616856886647  0.9997602963333934  0.24942402001454572  1.0000
  O   O15       1.0  0.4996239764702558  0.2495651971272662  0.2496968282085391  1.0000
  Ba  Ba6       1.0  0.49951577098754296  0.9996149160297524  0.5000364033830554  1.0000
  Zr  Zr5       1.0  0.749652273279722  0.2505176297285014  0.7502084146316879  1.0000
  O   O16       1.0  0.7496367132053977  0.24974102098029105  0.4997093908924604  1.0000
  O   O17       1.0  0.749772933686293  1.8188793947167192e-05  0.7501273064067628  1.0000
  O   O18       1.0  0.5000840842616788  0.25007015017073164  0.7494842573114344  1.0000
  Ba  Ba7       1.0  0.4999770651681013  0.49980664157303767  0.9997567865248016  1.0000
  Zr  Zr6       1.0  0.7495564621563474  0.7498615071620299  0.250016016754939  1.0000
  O   O19       1.0  0.7499316909518356  0.7497900032188077  0.9998258249738277  1.0000
  O   O20       1.0  0.750206353381278  0.5002337328216854  0.25032241851461  1.0000
  O   O21       1.0  0.49993861557908315  0.7494463272196946  0.2503608583381132  1.0000
  Ba  Ba8       1.0  0.500273979923103  0.5000008064916037  0.5002357093783937  1.0000
  Zr  Zr7       1.0  0.7496298450329015  0.7499467840961226  0.7497311789013856  1.0000
  O   O22       1.0  0.7496454196008676  0.7498342616493194  0.5002475636067049  1.0000
  O   O23       1.0  0.7505466072024316  0.49946303421563826  0.7501686055466065  1.0000
  O   O24       1.0  0.49972003223172545  0.7495448143260571  0.7494191447965799  1.0000
