data_image0
_chemical_formula_structural       BaZrO3BaZrO3BaZrO3BaZrO3BaZrO3BaYO3BaZrO3BaZrO3
_chemical_formula_sum              "Ba8 Zr7 O24 Y1"
_cell_length_a       8.384
_cell_length_b       8.384
_cell_length_c       8.384
_cell_angle_alpha    90.0
_cell_angle_beta     90.0
_cell_angle_gamma    90.0

_space_group_name_H-M_alt    "P 1"
_space_group_IT_number       1

loop_
  _space_group_symop_operation_xyz
  'x, y, z'

loop_
  _atom_site_type_symbol
  _atom_site_label
  _atom_site_symmetry_multiplicity
  _atom_site_fract_x
  _atom_site_fract_y
  _atom_site_fract_z
  _atom_site_occupancy
  Ba  Ba1       1.0  0.9999217179186306  0.00011698461470460992  0.0002830868629459879  1.0000
  Zr  Zr1       1.0  0.24963089138462857  0.2504679613474407  0.2505920694845369  1.0000
  O   O1        1.0  0.24961067380290647  0.24969384078781307  0.0005241978063516108  1.0000
  O   O2        1.0  0.24964527863638578  0.9996005099422242  0.2500154713622683  1.0000
  O   O3        1.0  0.9998803385165442  0.25053592933662977  0.24972616849541648  1.0000
  Ba  Ba2       1.0  0.0004989231865108324  0.9994742986914998  0.5001715028117402  1.0000
  Zr  Zr2       1.0  0.2505816989936654  0.24946627716645514  0.7497285243266968  1.0000
  O   O4        1.0  0.2505150781164315  0.24975301944693867  0.5003466911867641  1.0000
  O   O5        1.0  0.2495397710317359  0.9994795994246416  0.7504321567271529  1.0000
  O   O6        1.0  0.9994983857429427  0.25002145704278983  0.7505492321346868  1.0000
  Ba  Ba3       1.0  0.9996652889676405  0.5001411758479243  0.0001906345898840771  1.0000
  Zr  Zr3       1.0  0.2501406253012571  0.7499098018143437  0.24962650991158356  1.0000
  O   O7        1.0  0.250175268484592  0.749703232320287  1.3025733740099347e-05  1.0000
  O   O8        1.0  0.24960869614557143  0.5005677328530489  0.2502495427543341  1.0000
  O   O9        1.0  0.9998317008628113  0.7494305627268973  0.2504416155953565  1.0000
  Ba  Ba4       1.0  0.9994678624801644  0.5005963140174773  0.5000193675752597  1.0000
  Zr  Zr4       1.0  0.25020444146880694  0.7498076664016672  0.7496645978002303  1.0000
  O   O10       1.0  0.2494339739425984  0.7503602424905339  0.4996507066367237  1.0000
  O   O11       1.0  0.24984412126578182  0.4996205551133159  0.7503781905559211  1.0000
  O   O12       1.0  0.0001618109520748264  0.7496937342607015  0.7503949320435175  1.0000
  Ba  Ba5       1.0  0.49974131810383393  0.00022535064360892516  0.9997847272898654  1.0000
  Zr  Zr5       1.0  0.7494478773614768  0.2495016269705951  0.2502146748180445  1.0000
  O   O13       1.0  0.7500244928540278  0.24962795533741253  0.9994277995092065  1.0000
  O   O14       1.0  0.7498090700791139  0.9999202687542432  0.250197545287117  1.0000
  O   O15       1.0  0.49989723907154865  0.24979392236958953  0.24949760523812606  1.0000
  Ba  Ba6       1.0  0.5000610755622897  0.9999868485686625  0.4994961737426902  1.0000
  Y   Y1        1.0  0.7502586298479416  0.24977612122149048  0.7502774675735231  1.0000
  O   O16       1.0  0.7500905923558973  0.24980787289652498  0.500485442733763  1.0000
  O   O17       1.0  0.7505442022144201  0.000196629175435953  0.7502640469615655  1.0000
  O   O18       1.0  0.5005567967037626  0.2499514622362453  0.7494961595452202  1.0000
  Ba  Ba7       1.0  0.5003019751433956  0.5001891568213339  0.0004084897616965963  1.0000
  Zr  Zr6       1.0  0.7496539199262244  0.7500617581416057  0.25007154429754525  1.0000
  O   O19       1.0  0.7500023393607658  0.7494263886571617  0.00013070298082350302  1.0000
  O   O20       1.0  0.7501361367052758  0.5005541357741433  0.2504069096943753  1.0000
  O   O21       1.0  0.4999825933925899  0.7497561953813772  0.25044068043533985  1.0000
  Ba  Ba8       1.0  0.4997802545031895  0.4997673042518052  0.49963101354051753  1.0000
  Zr  Zr7       1.0  0.7504717590390485  0.750128876974934  0.7503719184875823  1.0000
  O   O22       1.0  0.750016847233772  0.7497563188084599  0.4998290050931986  1.0000
  O   O23       1.0  0.7497050281298402  0.4998125430481581  0.7500412042159592  1.0000
  O   O24       1.0  0.49982419683964024  0.7498308587099275  0.7503219481963482  1.0000
